*Heading
** Job name: sanity_base_power_2x Model name: Model-1
** Generated by: Abaqus/CAE 2024
*Preprint, echo=NO, model=NO, history=NO, contact=NO
**
** PARTS
**
*Part, name=part_plate
*Node
      1, 0.00200000009,           0.
      2, 0.00200000009, 0.00300000003
      3,           0., 0.00300000003
      4,           0.,           0.
      5, 0.00400000019,           0.
      6, 0.00400000019, 0.00300000003
      7, 0.00600000005,           0.
      8, 0.00600000005, 0.00300000003
      9, 0.00800000038,           0.
     10, 0.00800000038, 0.00300000003
     11, 0.00200000009, 9.99999902e-05
     12, 0.00200000009, 0.000199999995
     13, 0.00200000009, 0.000299999985
     14, 0.00200000009, 0.00039999999
     15, 0.00200000009, 0.000499999966
     16, 0.00200000009, 0.00059999997
     17, 0.00200000009, 0.000699999975
     18, 0.00200000009, 0.00079999998
     19, 0.00200000009, 0.000899999985
     20, 0.00200000009, 0.00100000005
** ... 2491 like lines cut
*Element, type=CPE4T
  1,   1,  11, 308, 106
  2,  11,  12, 309, 308
  3,  12,  13, 310, 309
  4,  13,  14, 311, 310
  5,  14,  15, 312, 311
  6,  15,  16, 313, 312
  7,  16,  17, 314, 313
  8,  17,  18, 315, 314
  9,  18,  19, 316, 315
 10,  19,  20, 317, 316
 11,  20,  21, 318, 317
 12,  21,  22, 319, 318
 13,  22,  23, 320, 319
 14,  23,  24, 321, 320
 15,  24,  25, 322, 321
 16,  25,  26, 323, 322
 17,  26,  27, 324, 323
 18,  27,  28, 325, 324
 19,  28,  29, 326, 325
 20,  29,  30, 327, 326
** ... 2380 like lines cut
*Nset, nset=Set-all, generate
    1,  2511,     1
*Elset, elset=Set-all, generate
    1,  2400,     1
*Nset, nset=set-body-1
   1,   2,   3,   4,  11,  12,  13,  14,  15,  16,  17,  18,  19,  20,  21,  22
  23,  24,  25,  26,  27,  28,  29,  30,  31,  32,  33,  34,  35,  36,  37,  38
  39,  40,  41,  42,  43,  44,  45,  46,  47,  48,  49,  50,  51,  52,  53,  54
  55,  56,  57,  58,  59,  60,  61,  62,  63,  64,  65,  66,  67,  68,  69,  70
  71,  72,  73,  74,  75,  76,  77,  78,  79,  80,  81,  82,  83,  84,  85,  86
  87,  88,  89,  90,  91,  92,  93,  94,  95,  96,  97,  98,  99, 100, 101, 102
 103, 104, 105, 106, 308, 309, 310, 311, 312, 313, 314, 315, 316, 317, 318, 319
 320, 321, 322, 323, 324, 325, 326, 327, 328, 329, 330, 331, 332, 333, 334, 335
 336, 337, 338, 339, 340, 341, 342, 343, 344, 345, 346, 347, 348, 349, 350, 351
 352, 353, 354, 355, 356, 357, 358, 359, 360, 361, 362, 363, 364, 365, 366, 367
 368, 369, 370, 371, 372, 373, 374, 375, 376, 377, 378, 379, 380, 381, 382, 383
 384, 385, 386, 387, 388, 389, 390, 391, 392, 393, 394, 395, 396, 397, 398, 399
 400, 401, 402, 403, 404, 405, 406, 407, 408, 409, 410, 411, 412, 413, 414, 415
 416, 417, 418, 419, 420, 421, 422, 423, 424, 425, 426, 427, 428, 429, 430, 431
 432, 433, 434, 435, 436, 437, 438, 439, 440, 441, 442, 443, 444, 445, 446, 447
 448, 449, 450, 451, 452, 453, 454, 455, 456, 457, 458, 459, 460, 461, 462, 463
 464, 465, 466, 467, 468, 469, 470, 471, 472, 473, 474, 475, 476, 477, 478, 479
 480, 481, 482, 483, 484, 485, 486, 487, 488, 489, 490, 491, 492, 493, 494, 495
 496, 497, 498, 499, 500, 501, 502, 503, 504, 505, 506, 507, 508, 509, 510, 511
 512, 513, 514, 515, 516, 517, 518, 519, 520, 521, 522, 523, 524, 525, 526, 527
** ... 21 like lines cut
*Elset, elset=set-body-1, generate
   1,  600,    1
*Elset, elset=_surf_external_all_S2, internal, generate
   30,  2400,    30
*Elset, elset=_surf_external_all_S3, internal
  571,  572,  573,  574,  575,  576,  577,  578,  579,  580,  581,  582,  583,  584,  585,  586
  587,  588,  589,  590,  591,  592,  593,  594,  595,  596,  597,  598,  599,  600, 2371, 2372
 2373, 2374, 2375, 2376, 2377, 2378, 2379, 2380, 2381, 2382, 2383, 2384, 2385, 2386, 2387, 2388
 2389, 2390, 2391, 2392, 2393, 2394, 2395, 2396, 2397, 2398, 2399, 2400
*Elset, elset=_surf_external_all_S4, internal, generate
    1,  2371,    30
*Surface, type=ELEMENT, name=surf_external_all
_surf_external_all_S2, S2
_surf_external_all_S3, S3
_surf_external_all_S4, S4
** Section: Section-1
*Solid Section, elset=Set-all, material="SS316L For AM"
,
*End Part
**  
**
** ASSEMBLY
**
*Assembly, name=Assembly
**  
*Instance, name=inst_plate, part=part_plate
*End Instance
**  
*Nset, nset=_PickedSet4, internal, instance=inst_plate
 4,
*Nset, nset=_PickedSet5, internal, instance=inst_plate
 3,
*End Assembly
** 
** MATERIALS
** 
** Material property of AISI Type 316L Steel in Additive Manufacturing
** 
*Material, name="SS316L For AM"
*Conductivity
  14.,  20.
  16., 100.
  17., 200.
  19., 400.
 21.5, 600.
  24., 800.
 26.5,1000.
  29.,1200.
  31.,1375.
  29.,1400.
  29.,1723.
  29.,3000.
*Density
7980.,  20.
7950., 100.
7920., 200.
7860., 400.
7800., 600.
7740., 800.
7680.,1000.
7620.,1200.
7580.,1375.
7450.,1400.
7300.,1723.
7200.,3000.
*Elastic
 2.08e+11,  0.3,  20.
 2.02e+11,  0.3, 100.
 1.94e+11,  0.3, 200.
 1.78e+11,  0.3, 400.
 1.62e+11,  0.3, 600.
 1.42e+11,  0.3, 800.
 1.12e+11,  0.3,1000.
  7.5e+10,  0.3,1200.
  1.5e+10,  0.3,1375.
    1e+08,  0.3,1400.
    1e+07,  0.3,1723.
    1e+06,  0.3,3000.
*Expansion
 1.48e-05,  20.
  1.6e-05, 100.
 1.68e-05, 200.
 1.78e-05, 400.
 1.87e-05, 600.
 1.96e-05, 800.
 2.02e-05,1000.
 2.08e-05,1200.
 2.15e-05,1375.
  2.2e-05,1400.
  2.2e-05,1723.
  2.2e-05,3000.
*Latent Heat
256000.,1375.,1400.
*Plastic
 5.8e+08,   0.,  20.
 5.3e+08,   0., 100.
 4.8e+08,   0., 200.
 4.1e+08,   0., 400.
 3.5e+08,   0., 600.
 2.1e+08,   0., 800.
   9e+07,   0.,1000.
   3e+07,   0.,1200.
   2e+06,   0.,1375.
  10000.,   0.,1400.
   5000.,   0.,1723.
   1000.,   0.,3000.
*Specific Heat
450.,  20.
480., 100.
505., 200.
540., 400.
570., 600.
600., 800.
635.,1000.
670.,1200.
700.,1375.
750.,1400.
760.,1723.
800.,3000.
** 
** PHYSICAL CONSTANTS
** 
*Physical Constants, absolute zero=-273.15, stefan boltzmann=5.67e-08
** 
** BOUNDARY CONDITIONS
** 
** Name: BC-1 Type: Displacement/Rotation
*Boundary
_PickedSet4, 1, 1
_PickedSet4, 2, 2
** Name: BC-2 Type: Displacement/Rotation
*Boundary
_PickedSet5, 1, 1
** 
** PREDEFINED FIELDS
** 
** Name: Predefined Field-1   Type: Temperature
*Initial Conditions, type=TEMPERATURE
inst_plate.Set-all, 20.
** ----------------------------------------------------------------
** 
** STEP: step_scan_00
** 
*Step, name=step_scan_00, nlgeom=YES, inc=999999
*Coupled Temperature-displacement, creep=none, deltmx=400.
0.05, 1., 1e-99, 0.1
** 
** LOADS
** 
** Name: load_body_hflux_00   Type: Body heat flux
*Dflux
inst_plate.set-body-1, BF, 2e+10
** 
** INTERACTIONS
** 
** Interaction: film_external_cooling
*Sfilm
inst_plate.surf_external_all, F, 20., 46.3
** Interaction: rad_external_ambient
*Sfilm
inst_plate.surf_external_all, F, 20., 0.285
** 
** OUTPUT REQUESTS
** 
*Restart, write, frequency=0
** 
** FIELD OUTPUT: F-Output-1
** 
*Output, field
*Node Output
NT, RF, U
*Element Output, directions=YES
HFL, PEEQ, S
** 
** HISTORY OUTPUT: H-Output-1
** 
*Output, history
*Energy Output
ALLAE, ALLIE, ALLKE, ALLPD, ALLSD, ALLSE, ALLWK, ETOTAL
*End Step
** ----------------------------------------------------------------
** 
** STEP: Step_cool_00
** 
*Step, name=Step_cool_00, nlgeom=YES, inc=999999
*Coupled Temperature-displacement, creep=none, deltmx=400.
0.1, 100., 1e-30, 10.
** 
** LOADS
** 
** Name: load_body_hflux_00   Type: Body heat flux
*Dflux, op=NEW
** 
** OUTPUT REQUESTS
** 
*Restart, write, frequency=0
** 
** FIELD OUTPUT: F-Output-1
** 
*Output, field
*Node Output
NT, RF, U
*Element Output, directions=YES
HFL, PEEQ, S
** 
** HISTORY OUTPUT: H-Output-1
** 
*Output, history
*Energy Output
ALLAE, ALLIE, ALLKE, ALLPD, ALLSD, ALLSE, ALLWK, ETOTAL
*End Step
